# GSI_GridComp.rc
#
# !REVISION HISTORY
#
#  13Mar2009  Todling  Tranfer all filename templates from gsi.rc here
#  28Sep2013  Todling  Remove obs table; automated
#

# Supported types: Uniform=0, Gaussian=1
GSIGridType: 0

# GSI grid information 

#regular grid use:
GEOS IM: 576
GEOS JM: 361
GEOS KM: 72
GSI IM:  576
GSI JM:  361
GSI LM:  72

#Gaussian grid use:
#GEOS IM: 62
#GEOS JM: @NLAT
#GEOS KM: 72
#GSI IM:  62
#GSI JM:  @NLAT
#GSI LM:  72

# NPEs along x and y
NX:      12
NY:      20
ANA_NX:  12
ANA_NY:  20
ORIGIN_CENTER_LON: 0.0
ORIGIN_CENTER_LAT: -90.0

BEG_DATE: >>>IOBBKGD<<< >>>IOBBKGT<<<
END_DATE: >>>IOEBKGD<<< >>>IOEBKGT<<<
JOB_SGMT: 0 60000

RUN_DT:   10800

BKG_FREQUENCY: 030000
ANA_FREQUENCY: 60000
OBS_FREQUENCY: 060000

ANALYSIS_INCREMENT: NO

RECORD_ANALYSIS: YES
RECORD_FREQUENCY: 030000
RECORD_REF_TIME:  >>>ANATIME<<<
RECORD_REF_DATE:  >>>ANADATE<<<

# set this to zero when using GEOS-Chem background
oz_bgadj_stratonly: 0

# SO2 assimilation settings
tgas_szamax_so2:        50.0
tgas_albmax_so2:        0.3
tgas_cldmax_so2:        0.5
tgas_minsigobs_so2:     2.0
tgas_maxsigobs_so2:     5.0
tgas_sigobsscal_so2:    1.0
tgas_minbgstrat_so2:    1.0 
tgas_minbgwater_so2:    1.0 
tgas_minbglndpbl_so2:   1.0 
tgas_minbglndfree_so2:  1.0 
tgas_bgscalstrat_so2:   0.5
tgas_bgscalwater_so2:   1.0
tgas_bgscallndpbl_so2:  1.0
tgas_bgscallndfree_so2: 1.0
tgas_vadj_so2:          1.0
tgas_hadjabove_so2:     1.0
tgas_hadjbelow_so2:     0.3
tgas_hadjlevidx_so2:    15

# NO2 assimilation settings
# Note: need to change albedo and cloud fraction to 0.3/0.5 if using MINDS
tgas_szamax_no2:        64.0
tgas_albmax_no2:        0.3
tgas_cldmax_no2:        0.5
tgas_minsigobs_no2:     2.0
tgas_maxsigobs_no2:     5.0
tgas_sigobsscal_no2:    1.0
tgas_minbgstrat_no2:    0.1 
tgas_minbgwater_no2:    0.1 
tgas_minbglndpbl_no2:   1.0 
tgas_minbglndfree_no2:  0.1 
tgas_bgscalstrat_no2:   1.0
tgas_bgscalwater_no2:   0.1
tgas_bgscallndpbl_no2:  5.0
tgas_bgscallndfree_no2: 0.1
tgas_vadj_no2:          1.0
tgas_hadjabove_no2:     0.8
tgas_hadjbelow_no2:     0.2
tgas_hadjlevidx_no2:    20

# bkg file names building blocks and templates - used by aana

expid: >>>EXPID<<<

surface_bkg_filename:   %s.bkg.sfc.%y4%m2%d2_%h2%n2z.nc4
surface_ana_filename:   %s.ana.sfc.%y4%m2%d2_%h2%n2z.nc4
surface_inc_filename:   %s.inc.sfc.%y4%m2%d2_%h2%n2z.nc4
chem_bkg_filename:      %s.cbkg.eta.%y4%m2%d2_%h2%n2z.nc4
aero_bkg_filename:      NONE  # %s.abkg.eta.%y4%m2%d2_%h2%n2z.nc4
ensemble_upabkg_filename:  %s.bkg.eta.%y4%m2%d2_%h2%n2z.nc4
upper-air_bkg_filename: %s.bkg.eta.%y4%m2%d2_%h2%n2z.nc4
upper-air_ana_filename: %s.ana.eta.%y4%m2%d2_%h2%n2z.nc4
upper-air_inc_filename: %s.inc.eta.%y4%m2%d2_%h2%n2z.nc4
upalcv_traj_filename: %s.traj.lcv.%y4%m2%d2_%h2%n2z.nc4
upaprs_ptrj_filename: %s.ptrj.prs.%y4%m2%d2_%h2%n2z.nc4
#forecast-bias_filename: %s.bias.eta.%y4%m2%d2_%h2%n2z.nc4
#sfcexp_filename: %s.sfc_export.%y4%m2%d2_%h2%n2z
post-analysis_obs_filename: %s.ana.obs.%y4%m2%d2_%h2%n2z.ods

vars_anaeta_file: phis,ps,ts,>>>TGASNAME<<<
vars_bkgeta_file: phis,ps,ts,tv,sphu,frland,frlandice,frlake,frocean,frseaice,>>>TGASNAME<<<
vars_bkgsfc_file: U10M,V10M,SNOWDP,GWETTOP,TSOIL1,Z0M

# used in read_guess

tracers: 0
pdryini: 98.3161392
vtid:    21.
xncld:   1.

SIGMAS:
1.00000000  0.99733466
0.99467099  0.99165040
0.98863202  0.98521459
0.98180002  0.97793972
0.97408301  0.96973169
0.96538502  0.96049106
0.95560300  0.95011324
0.94463098  0.93849069
0.93235999  0.92551297
0.91867799  0.91107142
0.90347999  0.89506209
0.88666302  0.87738937
0.86813903  0.85797018
0.84783000  0.83674008
0.82568502  0.81365991
0.80167699  0.78871876
0.77581102  0.76194209
0.74813300  0.73339593
0.71872902  0.70318937
0.68773103  0.67147696
0.65531600  0.63845783
0.62170500  0.60437369
0.58715999  0.56950229
0.55197400  0.53414822
0.51646298  0.49863371
0.48095500  0.46328700
0.44577801  0.42843068
0.41124901  0.39436883
0.37765899  0.36137757
0.34526899  0.32969791
0.31430000  0.29952824
0.28492799  0.27102205
0.25728399  0.24428768
0.23145400  0.21939002
0.20748200  0.19635287
0.18537199  0.17516564
0.16509899  0.15578815
0.14660800  0.13815479
0.12982300  0.12218294
0.11465500  0.10777701
0.10100200  0.09483192
0.08875600  0.08323913
0.07780800  0.07288960
0.06804900  0.06367428
0.05937000  0.05548869
0.05167100  0.04823432
0.04485500  0.04181716
0.03883100  0.03614972
0.03351500  0.03115152
0.02883000  0.02675009
0.02470800  0.02287891
0.02108400  0.01947701
0.01790100  0.01648990
0.01510700  0.01386962
0.01265800  0.01157264
0.01051100  0.00955999
0.00863100  0.00779765
0.00698500  0.00625461
0.00554400  0.00490435
0.00428400  0.00372380
0.00318300  0.00269122
0.00222000  0.00178715
0.00137800  0.00099361
0.00064200  0.00026640
0.00000000

# In the event that this is 4DVAR tell the adjoint we
# are in the Observer so SetServices doesnt attempt
# to generate a grid with insufficient information
# ---------------------------------------------------
PertObserverMode: 1

